Version 4
SHEET 1 4444 1092
WIRE 1664 -304 1664 -400
WIRE 1776 -304 1776 -400
WIRE 1888 -304 1888 -400
WIRE 2864 -240 2864 -336
WIRE 2864 -240 2768 -240
WIRE 3024 -240 2864 -240
WIRE 1664 -160 1664 -224
WIRE 1776 -160 1776 -224
WIRE 1776 -160 1664 -160
WIRE 1888 -160 1888 -224
WIRE 1888 -160 1776 -160
WIRE 2576 -160 2576 -304
WIRE 3024 -128 3024 -240
WIRE 1776 -112 1776 -160
WIRE 2400 -112 2384 -112
WIRE 2464 -112 2448 -112
WIRE 2528 -112 2464 -112
WIRE 1088 -96 1088 -224
WIRE 1216 -96 1216 -224
WIRE 2768 -96 2768 -240
WIRE 2464 -64 2464 -112
WIRE 1552 -48 1552 -240
WIRE 2896 -48 2816 -48
WIRE 2544 -32 2544 -64
WIRE 2608 -32 2544 -32
WIRE 2720 -32 2688 -32
WIRE 2544 16 2544 -32
WIRE 1088 48 1088 -16
WIRE 1088 48 1056 48
WIRE 1120 48 1088 48
WIRE 1216 48 1216 -16
WIRE 1216 48 1184 48
WIRE 1248 48 1216 48
WIRE 1088 112 1088 48
WIRE 1216 112 1216 48
WIRE 2464 128 2464 16
WIRE 2544 128 2544 96
WIRE 2544 128 2464 128
WIRE 976 160 896 160
WIRE 1040 160 976 160
WIRE 1312 160 1264 160
WIRE 1344 160 1312 160
WIRE 1552 160 1552 32
WIRE 1552 160 1408 160
WIRE 3296 160 3296 0
WIRE 3296 160 3152 160
WIRE 3440 160 3296 160
WIRE 2544 176 2544 128
WIRE 976 208 976 160
WIRE 1312 208 1312 160
WIRE 3440 240 3440 160
WIRE 3152 256 3152 160
WIRE 2544 288 2544 256
WIRE 2544 288 2496 288
WIRE 2736 288 2736 16
WIRE 2736 288 2656 288
WIRE 3024 288 3024 -48
WIRE 3024 288 2992 288
WIRE 1056 304 1056 208
WIRE 1152 304 1056 304
WIRE 1248 304 1248 208
WIRE 1248 304 1152 304
WIRE 2544 320 2544 288
WIRE 976 336 976 288
WIRE 1152 336 1152 304
WIRE 1312 336 1312 288
WIRE 1552 400 1552 160
WIRE 3152 432 3152 336
WIRE 3296 432 3152 432
WIRE 3440 432 3440 320
WIRE 3440 432 3296 432
WIRE 1152 448 1152 416
WIRE 1680 448 1600 448
WIRE 1728 448 1680 448
WIRE 1760 448 1728 448
WIRE 1872 448 1840 448
WIRE 1904 448 1872 448
WIRE 2016 448 1984 448
WIRE 2544 464 2544 400
WIRE 2544 464 2464 464
WIRE 3296 496 3296 432
WIRE 1680 512 1680 448
WIRE 2544 512 2544 464
WIRE 1728 528 1728 448
WIRE 1872 528 1872 448
WIRE 2464 576 2464 464
WIRE 2736 576 2736 288
WIRE 1312 592 1248 592
WIRE 1424 592 1376 592
WIRE 2544 624 2544 592
WIRE 2608 624 2544 624
WIRE 2720 624 2688 624
WIRE 3024 624 3024 288
WIRE 1680 640 1680 592
WIRE 1728 640 1728 592
WIRE 1728 640 1680 640
WIRE 1872 640 1872 592
WIRE 1872 640 1728 640
WIRE 2912 640 2816 640
WIRE 1728 656 1728 640
WIRE 2544 656 2544 624
WIRE 1248 688 1248 592
WIRE 1248 688 1104 688
WIRE 1296 688 1248 688
WIRE 1424 688 1424 592
WIRE 1424 688 1376 688
WIRE 1584 688 1584 496
WIRE 1584 688 1424 688
WIRE 2384 704 2368 704
WIRE 2464 704 2464 656
WIRE 2464 704 2448 704
WIRE 2528 704 2464 704
WIRE 1584 720 1584 688
WIRE 2768 832 2768 688
WIRE 2864 832 2768 832
WIRE 3024 832 3024 704
WIRE 3024 832 2864 832
WIRE 1584 864 1584 800
WIRE 2576 896 2576 752
WIRE 2864 928 2864 832
FLAG 1776 -112 0
FLAG 1664 -400 HT1
IOPIN 1664 -400 Out
FLAG 1776 -400 HT2
IOPIN 1776 -400 Out
FLAG 1888 -400 Vin
IOPIN 1888 -400 Out
FLAG 1552 -240 HT1
IOPIN 1552 -240 In
FLAG 976 336 0
FLAG 896 160 Vin
IOPIN 896 160 BiDir
FLAG 1312 336 0
FLAG 1056 48 Out-
IOPIN 1056 48 BiDir
FLAG 1248 48 Out+
IOPIN 1248 48 BiDir
FLAG 2384 -112 Out-
IOPIN 2384 -112 BiDir
FLAG 2576 -304 HT1
IOPIN 2576 -304 In
FLAG 2496 288 HT2
IOPIN 2496 288 Out
FLAG 2368 704 Out+
IOPIN 2368 704 BiDir
FLAG 2576 896 HT1
IOPIN 2576 896 In
FLAG 2896 -48 HT1
IOPIN 2896 -48 In
FLAG 2656 288 0
FLAG 2912 640 HT1
IOPIN 2912 640 In
FLAG 2992 288 HT1
IOPIN 2992 288 In
FLAG 1152 448 HT2
IOPIN 1152 448 Out
FLAG 3296 0 CRU
IOPIN 3296 0 BiDir
FLAG 1728 656 0
FLAG 2016 448 Vin
IOPIN 2016 448 BiDir
FLAG 1104 688 CRU
IOPIN 1104 688 BiDir
FLAG 3296 496 0
FLAG 1584 864 0
FLAG 2864 -336 Anode1
IOPIN 2864 -336 Out
FLAG 2864 928 Anode2
IOPIN 2864 928 Out
FLAG 1088 -224 HT1
IOPIN 1088 -224 In
FLAG 1216 -224 HT1
IOPIN 1216 -224 In
SYMBOL voltage 1664 -320 R0
WINDOW 123 0 0 Left 2
WINDOW 39 0 0 Left 2
SYMATTR InstName V1
SYMATTR Value 250
SYMBOL voltage 1776 -208 M180
WINDOW 123 0 0 Left 2
WINDOW 39 0 0 Left 2
SYMATTR InstName V2
SYMATTR Value SINE(99 15m 100)
SYMBOL voltage 1888 -320 R0
WINDOW 123 24 124 Left 2
WINDOW 39 0 0 Left 2
SYMATTR Value2 AC 1 1
SYMATTR InstName V4
SYMATTR Value SINE(0 0.1 1k)
SYMBOL res 960 192 R0
SYMATTR InstName R1
SYMATTR Value 470k
SYMBOL valves\\triode 1088 160 R0
SYMATTR InstName U1
SYMATTR Value 12AX7
SYMBOL valves\\triode 1216 160 M0
SYMATTR InstName U2
SYMATTR Value 12AX7
SYMBOL res 1104 -112 M0
SYMATTR InstName R3
SYMATTR Value 220k
SYMATTR SpiceLine tol=1 pwr=0.5
SYMBOL res 1200 -112 R0
SYMATTR InstName R4
SYMATTR Value 220k
SYMATTR SpiceLine tol=1 pwr=0.5
SYMBOL res 1296 192 R0
SYMATTR InstName R5
SYMATTR Value 470k
SYMBOL cap 2448 -128 R90
WINDOW 0 0 32 VBottom 2
WINDOW 3 32 32 VTop 2
SYMATTR InstName C1
SYMATTR Value 47n
SYMATTR SpiceLine V=250 Rser=0.003
SYMBOL res 2480 -80 M0
SYMATTR InstName R6
SYMATTR Value 470k
SYMBOL res 2528 160 R0
SYMATTR InstName R9
SYMATTR Value 12k
SYMATTR SpiceLine tol=1 pwr=1
SYMBOL cap 2448 720 M270
WINDOW 0 32 32 VTop 2
WINDOW 3 0 32 VBottom 2
SYMATTR InstName C2
SYMATTR Value 47n
SYMATTR SpiceLine V=250 Rser=0.003
SYMBOL res 2480 672 R180
WINDOW 0 36 76 Left 2
WINDOW 3 36 40 Left 2
SYMATTR InstName R7
SYMATTR Value 470k
SYMBOL res 2528 416 M180
WINDOW 0 36 76 Left 2
WINDOW 3 36 40 Left 2
SYMATTR InstName R8
SYMATTR Value 12k
SYMATTR SpiceLine tol=1 pwr=1
SYMBOL valves\\tetrode_pentode 2768 -48 R0
SYMATTR InstName U5
SYMATTR Value 6AQ5
SYMBOL ind2 3008 -32 M180
WINDOW 0 36 80 Left 2
WINDOW 3 36 40 Left 2
SYMATTR InstName L1
SYMATTR Value 8
SYMATTR Type ind
SYMATTR SpiceLine Rser=25 Cpar=100p
SYMBOL valves\\tetrode_pentode 2768 640 M180
SYMATTR InstName U6
SYMATTR Value 6AQ5
SYMBOL ind2 3008 720 M180
WINDOW 0 36 80 Left 2
WINDOW 3 36 40 Left 2
SYMATTR InstName L2
SYMATTR Value 8
SYMATTR Type ind
SYMATTR SpiceLine Rser=25 Cpar=100p
SYMBOL res 2528 0 R0
SYMATTR InstName R10
SYMATTR Value 1.37k
SYMBOL res 2528 496 R0
SYMATTR InstName R11
SYMATTR Value 1.37k
SYMBOL res 1136 320 R0
SYMATTR InstName R2
SYMATTR Value 100k
SYMBOL ind2 3168 352 R180
WINDOW 0 36 80 Left 2
WINDOW 3 36 40 Left 2
SYMATTR InstName L3
SYMATTR Value 0.024
SYMATTR Type ind
SYMATTR SpiceLine Rser=0.8 Cpar=20p
SYMBOL valves\\triode 1552 448 M0
SYMATTR InstName U7
SYMATTR Value 6N16B
SYMBOL res 1536 -64 R0
SYMATTR InstName R13
SYMATTR Value 22k
SYMATTR SpiceLine tol=1 pwr=2
SYMBOL res 1696 496 M0
SYMATTR InstName R18
SYMATTR Value 1Meg
SYMBOL cap 1408 144 R90
WINDOW 0 0 32 VBottom 2
WINDOW 3 32 32 VTop 2
SYMATTR InstName C3
SYMATTR Value 100n
SYMATTR SpiceLine V=250
SYMBOL res 3424 224 R0
SYMATTR InstName R12
SYMATTR Value 8
SYMBOL res 1888 432 M90
WINDOW 0 0 56 VBottom 2
WINDOW 3 32 56 VTop 2
SYMATTR InstName R16
SYMATTR Value 10k
SYMBOL res 1744 432 M90
WINDOW 0 0 56 VBottom 2
WINDOW 3 32 56 VTop 2
SYMATTR InstName R17
SYMATTR Value 10k
SYMBOL cap 1888 528 M0
SYMATTR InstName C5
SYMATTR Value 100p
SYMATTR SpiceLine V=63
SYMBOL cap 1184 32 R90
WINDOW 0 0 32 VBottom 2
WINDOW 3 32 32 VTop 2
SYMATTR InstName C4
SYMATTR Value 200p
SYMATTR SpiceLine V=250
SYMBOL res 1392 672 R90
WINDOW 0 0 56 VBottom 2
WINDOW 3 32 56 VTop 2
SYMATTR InstName R15
SYMATTR Value 10k
SYMBOL cap 1712 528 R0
SYMATTR InstName C6
SYMATTR Value 100p
SYMATTR SpiceLine V=63
SYMBOL cap 1376 608 M270
WINDOW 0 32 32 VTop 2
WINDOW 3 0 32 VBottom 2
SYMATTR InstName C7
SYMATTR Value 270p
SYMATTR SpiceLine V=63
SYMBOL res 1600 704 M0
SYMATTR InstName R20
SYMATTR Value 410
SYMBOL valves\\triode 2576 704 M180
SYMATTR InstName U3
SYMATTR Value 6N8S
SYMBOL valves\\triode 2576 -112 R0
SYMATTR InstName U4
SYMATTR Value 6N8S
SYMBOL res 2704 -48 R90
WINDOW 0 0 56 VBottom 2
WINDOW 3 32 56 VTop 2
SYMATTR InstName R14
SYMATTR Value 10k
SYMBOL res 2704 608 R90
WINDOW 0 0 56 VBottom 2
WINDOW 3 32 56 VTop 2
SYMATTR InstName R19
SYMATTR Value 10k
TEXT 1752 160 Left 2 !.tran 50m
TEXT 3104 120 Left 2 !K1 L1 L2 L3 0.999
TEXT 1696 -16 Left 2 !.Fourrier 1000 V(CRU)
TEXT 1696 16 Left 2 !.measure OUTPUT_POWER_RMS RMS(V(CRU))*I(R12)
TEXT 1688 72 Left 2 !;ac oct 200 2 1Meg
LINE Normal 3072 720 3072 -160 2
LINE Normal 3104 720 3104 -160 2
