Version 4
SHEET 1 4444 1092
WIRE 1664 -304 1664 -400
WIRE 1776 -304 1776 -400
WIRE 1888 -304 1888 -400
WIRE 2864 -240 2864 -336
WIRE 2864 -240 2768 -240
WIRE 3024 -240 2864 -240
WIRE 1664 -160 1664 -224
WIRE 1776 -160 1776 -224
WIRE 1776 -160 1664 -160
WIRE 1888 -160 1888 -224
WIRE 1888 -160 1776 -160
WIRE 2576 -160 2576 -304
WIRE 3024 -128 3024 -240
WIRE 1776 -112 1776 -160
WIRE 2352 -112 2336 -112
WIRE 2416 -112 2400 -112
WIRE 2432 -112 2416 -112
WIRE 2528 -112 2512 -112
WIRE 1088 -96 1088 -224
WIRE 1216 -96 1216 -224
WIRE 2768 -96 2768 -240
WIRE 2416 -64 2416 -112
WIRE 1552 -48 1552 -240
WIRE 2832 -48 2816 -48
WIRE 2544 -32 2544 -64
WIRE 2608 -32 2544 -32
WIRE 2720 -32 2688 -32
WIRE 2544 16 2544 -32
WIRE 1088 48 1088 -16
WIRE 1088 48 1056 48
WIRE 1216 48 1216 -16
WIRE 1248 48 1216 48
WIRE 1088 112 1088 48
WIRE 1216 112 1216 48
WIRE 2416 128 2416 16
WIRE 2544 128 2544 96
WIRE 2544 128 2416 128
WIRE 864 160 784 160
WIRE 928 160 864 160
WIRE 1040 160 1008 160
WIRE 1280 160 1264 160
WIRE 1376 160 1360 160
WIRE 1440 160 1376 160
WIRE 1552 160 1552 32
WIRE 1552 160 1504 160
WIRE 3296 160 3296 0
WIRE 3296 160 3152 160
WIRE 3440 160 3296 160
WIRE 2544 176 2544 128
WIRE 864 208 864 160
WIRE 1376 208 1376 160
WIRE 2944 208 2944 176
WIRE 3440 240 3440 160
WIRE 1552 256 1552 160
WIRE 1616 256 1552 256
WIRE 1728 256 1680 256
WIRE 1856 256 1808 256
WIRE 3152 256 3152 160
WIRE 2544 288 2544 256
WIRE 2544 288 2496 288
WIRE 2736 288 2736 16
WIRE 2736 288 2656 288
WIRE 2944 288 2944 272
WIRE 2944 288 2912 288
WIRE 3024 288 3024 -48
WIRE 3024 288 2944 288
WIRE 1056 304 1056 208
WIRE 1152 304 1056 304
WIRE 1248 304 1248 208
WIRE 1248 304 1152 304
WIRE 2544 320 2544 288
WIRE 864 336 864 288
WIRE 1152 336 1152 304
WIRE 1376 336 1376 288
WIRE 1552 400 1552 256
WIRE 3152 432 3152 336
WIRE 3296 432 3152 432
WIRE 3440 432 3440 320
WIRE 3440 432 3296 432
WIRE 1152 448 1152 416
WIRE 1616 448 1600 448
WIRE 1776 448 1696 448
WIRE 1824 448 1776 448
WIRE 1856 448 1824 448
WIRE 1968 448 1936 448
WIRE 2016 448 1968 448
WIRE 2160 448 2096 448
WIRE 2544 464 2544 400
WIRE 2544 464 2416 464
WIRE 3296 496 3296 432
WIRE 1776 512 1776 448
WIRE 2544 512 2544 464
WIRE 1824 528 1824 448
WIRE 1968 528 1968 448
WIRE 2416 576 2416 464
WIRE 2736 576 2736 288
WIRE 1312 592 1248 592
WIRE 1424 592 1376 592
WIRE 2544 624 2544 592
WIRE 2608 624 2544 624
WIRE 2720 624 2688 624
WIRE 3024 624 3024 288
WIRE 1776 640 1776 592
WIRE 1824 640 1824 592
WIRE 1824 640 1776 640
WIRE 1968 640 1968 592
WIRE 1968 640 1824 640
WIRE 2832 640 2816 640
WIRE 1824 656 1824 640
WIRE 2544 656 2544 624
WIRE 1248 688 1248 592
WIRE 1248 688 1104 688
WIRE 1296 688 1248 688
WIRE 1424 688 1424 592
WIRE 1424 688 1376 688
WIRE 1584 688 1584 496
WIRE 1584 688 1424 688
WIRE 2336 704 2320 704
WIRE 2416 704 2416 656
WIRE 2416 704 2400 704
WIRE 2432 704 2416 704
WIRE 2528 704 2512 704
WIRE 1584 720 1584 688
WIRE 2768 832 2768 688
WIRE 2864 832 2768 832
WIRE 3024 832 3024 704
WIRE 3024 832 2864 832
WIRE 1584 864 1584 800
WIRE 2576 896 2576 752
WIRE 2864 928 2864 832
FLAG 1776 -112 0
FLAG 1664 -400 HT1
IOPIN 1664 -400 Out
FLAG 1776 -400 HT2
IOPIN 1776 -400 Out
FLAG 1888 -400 Vin
IOPIN 1888 -400 Out
FLAG 1552 -240 HT1
IOPIN 1552 -240 In
FLAG 864 336 0
FLAG 784 160 Vin
IOPIN 784 160 BiDir
FLAG 1376 336 0
FLAG 1056 48 Out-
IOPIN 1056 48 BiDir
FLAG 1248 48 Out+
IOPIN 1248 48 BiDir
FLAG 2336 -112 Out-
IOPIN 2336 -112 BiDir
FLAG 2576 -304 HT1
IOPIN 2576 -304 In
FLAG 2496 288 HT2
IOPIN 2496 288 Out
FLAG 2320 704 Out+
IOPIN 2320 704 BiDir
FLAG 2576 896 HT1
IOPIN 2576 896 In
FLAG 2912 -48 HT1
IOPIN 2912 -48 In
FLAG 2656 288 0
FLAG 2912 640 HT1
IOPIN 2912 640 In
FLAG 2912 288 HT1
IOPIN 2912 288 In
FLAG 1152 448 HT2
IOPIN 1152 448 Out
FLAG 3296 0 CRU
IOPIN 3296 0 BiDir
FLAG 1824 656 0
FLAG 2160 448 Vin
IOPIN 2160 448 BiDir
FLAG 1104 688 CRU
IOPIN 1104 688 BiDir
FLAG 3296 496 0
FLAG 1584 864 0
FLAG 2864 -336 Anode1
IOPIN 2864 -336 Out
FLAG 2864 928 Anode2
IOPIN 2864 928 Out
FLAG 1088 -224 HT1
IOPIN 1088 -224 In
FLAG 1216 -224 HT1
IOPIN 1216 -224 In
FLAG 1856 256 0
FLAG 2944 176 0
SYMBOL voltage 1664 -320 R0
WINDOW 123 0 0 Left 2
WINDOW 39 0 0 Left 2
SYMATTR InstName V1
SYMATTR Value SINE(250 5m 100)
SYMBOL voltage 1776 -208 M180
WINDOW 123 0 0 Left 2
WINDOW 39 0 0 Left 2
SYMATTR InstName V2
SYMATTR Value SINE(113 10m 100)
SYMBOL voltage 1888 -320 R0
WINDOW 123 24 124 Left 2
WINDOW 39 0 0 Left 2
SYMATTR Value2 AC 1 1
SYMATTR InstName V4
SYMATTR Value SINE(0 0.15 1k)
SYMBOL res 848 192 R0
SYMATTR InstName R1
SYMATTR Value 10k
SYMBOL valves\\triode 1088 160 R0
SYMATTR InstName U1
SYMATTR Value 12AX7
SYMBOL valves\\triode 1216 160 M0
SYMATTR InstName U2
SYMATTR Value 12AX7
SYMBOL res 1104 -112 M0
SYMATTR InstName R3
SYMATTR Value 220k
SYMATTR SpiceLine tol=1 pwr=0.5
SYMBOL res 1200 -112 R0
SYMATTR InstName R4
SYMATTR Value 220k
SYMATTR SpiceLine tol=1 pwr=0.5
SYMBOL res 1360 192 R0
SYMATTR InstName R5
SYMATTR Value 470k
SYMBOL cap 2400 -128 R90
WINDOW 0 0 32 VBottom 2
WINDOW 3 32 32 VTop 2
SYMATTR InstName C1
SYMATTR Value 47n
SYMATTR SpiceLine V=250 Rser=0.003
SYMBOL res 2432 -80 M0
SYMATTR InstName R6
SYMATTR Value 470k
SYMBOL res 2528 160 R0
SYMATTR InstName R9
SYMATTR Value 12k
SYMATTR SpiceLine tol=1 pwr=1
SYMBOL cap 2400 720 M270
WINDOW 0 32 32 VTop 2
WINDOW 3 0 32 VBottom 2
SYMATTR InstName C2
SYMATTR Value 47n
SYMATTR SpiceLine V=250 Rser=0.003
SYMBOL res 2432 672 R180
WINDOW 0 36 76 Left 2
WINDOW 3 36 40 Left 2
SYMATTR InstName R7
SYMATTR Value 470k
SYMBOL res 2528 416 M180
WINDOW 0 36 76 Left 2
WINDOW 3 36 40 Left 2
SYMATTR InstName R8
SYMATTR Value 12k
SYMATTR SpiceLine tol=1 pwr=1
SYMBOL valves\\tetrode_pentode 2768 -48 R0
SYMATTR InstName U5
SYMATTR Value 6AQ5
SYMBOL ind2 3008 -32 M180
WINDOW 0 36 80 Left 2
WINDOW 3 36 40 Left 2
SYMATTR InstName L1
SYMATTR Value 79.25
SYMATTR Type ind
SYMATTR SpiceLine Rser=85 Cpar=380p
SYMBOL valves\\tetrode_pentode 2768 640 M180
SYMATTR InstName U6
SYMATTR Value 6AQ5
SYMBOL ind2 3008 720 M180
WINDOW 0 36 80 Left 2
WINDOW 3 36 40 Left 2
SYMATTR InstName L2
SYMATTR Value 79.25
SYMATTR Type ind
SYMATTR SpiceLine Rser=85 Cpar=380p
SYMBOL res 2528 0 R0
SYMATTR InstName R10
SYMATTR Value {Rk}
SYMBOL res 2528 496 R0
SYMATTR InstName R11
SYMATTR Value {Rk}
SYMBOL res 1136 320 R0
SYMATTR InstName R2
SYMATTR Value 110k
SYMBOL ind2 3168 352 R180
WINDOW 0 36 80 Left 2
WINDOW 3 36 40 Left 2
SYMATTR InstName L3
SYMATTR Value 0.271
SYMATTR Type ind
SYMATTR SpiceLine Rser=0.8 Cpar=20p
SYMBOL valves\\triode 1552 448 M0
SYMATTR InstName U7
SYMATTR Value 6N16B
SYMBOL res 1792 496 M0
SYMATTR InstName R18
SYMATTR Value 470k
SYMBOL res 3424 224 R0
SYMATTR InstName R12
SYMATTR Value 8
SYMBOL res 1840 432 M90
WINDOW 0 0 56 VBottom 2
WINDOW 3 32 56 VTop 2
SYMATTR InstName R17
SYMATTR Value 1k
SYMBOL res 1392 672 R90
WINDOW 0 0 56 VBottom 2
WINDOW 3 32 56 VTop 2
SYMATTR InstName R15
SYMATTR Value 12k
SYMBOL cap 1808 528 R0
SYMATTR InstName C6
SYMATTR Value 331p
SYMATTR SpiceLine V=63
SYMBOL cap 1376 608 M270
WINDOW 0 32 32 VTop 2
WINDOW 3 0 32 VBottom 2
SYMATTR InstName C7
SYMATTR Value 100p
SYMATTR SpiceLine V=63
SYMBOL res 1600 704 M0
SYMATTR InstName R20
SYMATTR Value 410
SYMBOL valves\\triode 2576 704 M180
SYMATTR InstName U3
SYMATTR Value 6N8S
SYMBOL valves\\triode 2576 -112 R0
SYMATTR InstName U4
SYMATTR Value 6N8S
SYMBOL res 2704 -48 R90
WINDOW 0 0 56 VBottom 2
WINDOW 3 32 56 VTop 2
SYMATTR InstName R14
SYMATTR Value 1k
SYMBOL res 2704 608 R90
WINDOW 0 0 56 VBottom 2
WINDOW 3 32 56 VTop 2
SYMATTR InstName R19
SYMATTR Value 1k
SYMBOL res 1568 -64 M0
SYMATTR InstName R21
SYMATTR Value 23.5k
SYMATTR SpiceLine tol=1 pwr=2
SYMBOL cap 1952 528 R0
SYMATTR InstName C5
SYMATTR Value 56p
SYMBOL res 2000 464 R270
WINDOW 0 32 56 VTop 2
WINDOW 3 0 56 VBottom 2
SYMATTR InstName R13
SYMATTR Value 1k
SYMBOL res 2416 -96 R270
WINDOW 0 32 56 VTop 2
WINDOW 3 0 56 VBottom 2
SYMATTR InstName R22
SYMATTR Value 10k
SYMBOL res 2416 720 R270
WINDOW 0 32 56 VTop 2
WINDOW 3 0 56 VBottom 2
SYMATTR InstName R23
SYMATTR Value 10k
SYMBOL res 1264 176 R270
WINDOW 0 32 56 VTop 2
WINDOW 3 0 56 VBottom 2
SYMATTR InstName R24
SYMATTR Value 1k
SYMBOL res 912 176 R270
WINDOW 0 32 56 VTop 2
WINDOW 3 0 56 VBottom 2
SYMATTR InstName R25
SYMATTR Value 1k
SYMBOL res 1600 464 R270
WINDOW 0 32 56 VTop 2
WINDOW 3 0 56 VBottom 2
SYMATTR InstName R16
SYMATTR Value 10k
SYMBOL cap 1680 240 R90
WINDOW 0 0 32 VBottom 2
WINDOW 3 32 32 VTop 2
SYMATTR InstName C4
SYMATTR Value 22n
SYMBOL res 1824 240 R90
WINDOW 0 0 56 VBottom 2
WINDOW 3 32 56 VTop 2
SYMATTR InstName R26
SYMATTR Value 2.2k
SYMBOL cap 1504 144 R90
WINDOW 0 0 32 VBottom 2
WINDOW 3 32 32 VTop 2
SYMATTR InstName C3
SYMATTR Value 150n
SYMBOL res 2928 624 R90
WINDOW 0 0 56 VBottom 2
WINDOW 3 32 56 VTop 2
SYMATTR InstName R27
SYMATTR Value 560
SYMBOL res 2928 -64 R90
WINDOW 0 0 56 VBottom 2
WINDOW 3 32 56 VTop 2
SYMATTR InstName R28
SYMATTR Value 560
SYMBOL cap 2928 208 R0
SYMATTR InstName C8
SYMATTR Value 1µ
TEXT 1752 160 Left 2 !.tran 5m
TEXT 3104 120 Left 2 !K1 L1 L2 L3 0.99998107237607757364
TEXT 1696 -16 Left 2 !.Fourrier 1000 V(CRU)
TEXT 1696 16 Left 2 !.measure OUTPUT_POWER_RMS RMS(V(CRU))*I(R12)
TEXT 1688 72 Left 2 !;ac oct 200 2 1Meg
TEXT 1696 40 Left 2 !.PARAM Rk=1.1k
LINE Normal 3072 720 3072 -160 2
LINE Normal 3104 720 3104 -160 2
