Version 4
SHEET 1 2848 1268
WIRE 640 496 608 496
WIRE 768 496 768 432
WIRE 768 496 720 496
WIRE 880 496 768 496
WIRE 992 496 880 496
WIRE 1152 496 992 496
WIRE 1264 496 1152 496
WIRE 1392 496 1264 496
WIRE 1264 512 1264 496
WIRE 1152 544 1152 496
WIRE 1392 592 1392 496
WIRE 1408 592 1392 592
WIRE 1568 592 1504 592
WIRE 1744 592 1696 592
WIRE 1792 592 1744 592
WIRE 1968 592 1792 592
WIRE 2144 592 1968 592
WIRE 2304 592 2304 448
WIRE 2304 592 2144 592
WIRE 2432 592 2304 592
WIRE 1264 640 1264 592
WIRE 1792 640 1792 592
WIRE 464 656 96 656
WIRE 1968 656 1968 592
WIRE 2144 656 2144 592
WIRE 1488 672 1488 640
WIRE 1152 688 1152 608
WIRE 1152 688 1072 688
WIRE 1200 688 1152 688
WIRE 464 720 464 656
WIRE 880 736 880 496
WIRE 992 736 992 496
WIRE 768 768 768 496
WIRE 464 784 464 720
WIRE 2304 784 2304 592
WIRE 2432 784 2432 592
WIRE 96 800 96 656
WIRE 1264 800 1264 736
WIRE 1328 800 1264 800
WIRE 1488 800 1488 752
WIRE 1488 800 1408 800
WIRE 1536 800 1488 800
WIRE 1744 800 1744 592
WIRE 1744 800 1600 800
WIRE 1632 816 1632 640
WIRE 1792 816 1792 704
WIRE 1792 816 1632 816
WIRE 1840 816 1792 816
WIRE 1968 816 1968 736
WIRE 1968 816 1920 816
WIRE 400 832 400 784
WIRE 400 832 368 832
WIRE 528 832 528 720
WIRE 608 832 608 496
WIRE 608 832 528 832
WIRE 400 864 400 832
WIRE 1152 864 1152 688
WIRE 1264 864 1264 800
WIRE 1968 864 1968 816
WIRE 2144 864 2144 736
WIRE 608 880 608 832
WIRE 1072 880 1072 688
WIRE 1632 880 1632 816
WIRE 1488 896 1488 800
WIRE 464 928 464 864
WIRE 528 928 528 832
WIRE 96 1008 96 880
WIRE 464 1008 464 928
WIRE 464 1008 96 1008
WIRE 608 1040 608 944
WIRE 768 1040 768 832
WIRE 768 1040 608 1040
WIRE 880 1040 880 816
WIRE 880 1040 768 1040
WIRE 992 1040 992 816
WIRE 992 1040 880 1040
WIRE 1072 1040 1072 944
WIRE 1072 1040 992 1040
WIRE 1152 1040 1152 944
WIRE 1152 1040 1072 1040
WIRE 1264 1040 1264 944
WIRE 1264 1040 1152 1040
WIRE 1488 1040 1488 960
WIRE 1488 1040 1264 1040
WIRE 1632 1040 1632 944
WIRE 1632 1040 1488 1040
WIRE 1968 1040 1968 944
WIRE 1968 1040 1632 1040
WIRE 2144 1040 2144 928
WIRE 2144 1040 1968 1040
WIRE 2304 1040 2304 864
WIRE 2304 1040 2144 1040
WIRE 2432 1040 2432 864
WIRE 2432 1040 2304 1040
WIRE 608 1088 608 1040
FLAG 368 832 0
FLAG 608 1088 0
FLAG 2304 448 HTReg
FLAG 768 432 HTPos
SYMBOL voltage 96 784 R0
WINDOW 123 0 0 Left 2
WINDOW 39 24 124 Left 2
SYMATTR SpiceLine Rser=27
SYMATTR InstName V2
SYMATTR Value SINE(0 297 50 0 0 0 2000)
SYMBOL diode 464 944 R270
WINDOW 0 32 32 VTop 2
WINDOW 3 0 32 VBottom 2
SYMATTR InstName D9
SYMATTR Value MUR460
SYMBOL diode 400 880 R270
WINDOW 0 32 32 VTop 2
WINDOW 3 0 32 VBottom 2
SYMATTR InstName D10
SYMATTR Value MUR460
SYMBOL diode 400 800 R270
WINDOW 0 32 32 VTop 2
WINDOW 3 0 32 VBottom 2
SYMATTR InstName D11
SYMATTR Value MUR460
SYMBOL diode 464 736 R270
WINDOW 0 32 32 VTop 2
WINDOW 3 0 32 VBottom 2
SYMATTR InstName D12
SYMATTR Value MUR460
SYMBOL cap 624 880 M0
SYMATTR InstName C3
SYMATTR Value 47
SYMATTR SpiceLine V=250 Rser=1
SYMBOL res 2288 768 R0
SYMATTR InstName R2
SYMATTR Value 5555
SYMBOL cap 1472 896 R0
SYMATTR InstName C1
SYMATTR Value 16
SYMBOL Misc\\IRF820 1408 640 R270
SYMATTR InstName U2
SYMBOL ind 624 512 R270
WINDOW 0 32 56 VTop 2
WINDOW 3 5 56 VBottom 2
SYMATTR InstName L1
SYMATTR Value 3
SYMATTR SpiceLine Rser=21
SYMBOL cap 784 768 M0
SYMATTR InstName C4
SYMATTR Value 100
SYMBOL res 864 720 R0
SYMATTR InstName R1
SYMATTR Value 2000
SYMBOL res 2128 640 R0
SYMATTR InstName R3
SYMATTR Value 5
SYMBOL cap 2128 864 R0
SYMATTR InstName C2
SYMATTR Value 2.2
SYMBOL zener 1168 608 R180
WINDOW 0 24 64 Left 2
WINDOW 3 24 0 Left 2
SYMATTR InstName D1
SYMATTR Value BZX84C6V2L
SYMATTR Description Diode
SYMATTR Type diode
SYMBOL res 1136 848 R0
SYMATTR InstName R4
SYMATTR Value 200k
SYMBOL res 1248 496 R0
SYMATTR InstName R5
SYMATTR Value 4.7k
SYMBOL res 1248 848 R0
SYMATTR InstName R6
SYMATTR Value 220k
SYMBOL res 1424 784 R90
WINDOW 0 0 56 VBottom 2
WINDOW 3 32 56 VTop 2
SYMATTR InstName R7
SYMATTR Value 1k
SYMBOL res 1504 656 M0
SYMATTR InstName R8
SYMATTR Value 1k
SYMBOL pnp 1200 736 M180
SYMATTR InstName Q1
SYMATTR Value MJE350
SYMBOL zener 1600 784 R90
WINDOW 0 -4 32 VBottom 2
WINDOW 3 36 32 VTop 2
SYMATTR InstName D2
SYMATTR Value BZX84C15L
SYMATTR Description Diode
SYMATTR Type diode
SYMBOL cap 1088 880 M0
SYMATTR InstName C5
SYMATTR Value 1
SYMBOL current 992 736 R0
WINDOW 123 0 0 Left 2
WINDOW 39 0 0 Left 2
SYMATTR InstName I1
SYMATTR Value SINE(0 40m 1k 30 0 0 10k)
SYMBOL Misc\\lm317 1632 592 R0
SYMATTR Value2 ""
SYMATTR InstName U1
SYMBOL res 1984 640 M0
SYMATTR InstName R9
SYMATTR Value 860
SYMBOL res 1984 848 M0
SYMATTR InstName R10
SYMATTR Value 150k
SYMBOL schottky 1808 704 R180
WINDOW 0 24 64 Left 2
WINDOW 3 24 0 Left 2
SYMATTR InstName D3
SYMATTR Value PMEG4005AEA
SYMATTR Description Diode
SYMATTR Type diode
SYMBOL res 1936 800 R90
WINDOW 0 0 56 VBottom 2
WINDOW 3 32 56 VTop 2
SYMATTR InstName R11
SYMATTR Value 1k
SYMBOL cap 1616 880 R0
SYMATTR InstName C6
SYMATTR Value 2
SYMBOL current 2432 784 R0
WINDOW 123 0 0 Left 2
WINDOW 39 0 0 Left 2
SYMATTR InstName I2
SYMATTR Value SINE(0 4m 1k 30 0 0 10k)
TEXT 64 360 Left 2 !.tran 60
TEXT 2328 512 Left 2 ;drivers
TEXT 1592 536 Left 2 ;LM317TI
TEXT 872 400 Left 2 ;puissance
RECTANGLE Normal 1024 1104 832 432 2
RECTANGLE Normal 2480 1088 2272 544 2
