Version 4
SHEET 1 1348 1108
WIRE 752 -160 608 -160
WIRE 816 -160 752 -160
WIRE 912 -160 896 -160
WIRE 960 -160 912 -160
WIRE 1024 -160 960 -160
WIRE 1040 -160 1024 -160
WIRE 960 -112 960 -160
WIRE 464 -96 96 -96
WIRE 752 -96 752 -160
WIRE 896 -80 896 -112
WIRE 464 -16 464 -96
WIRE 752 32 752 -16
WIRE 784 32 752 32
WIRE 896 32 896 0
WIRE 896 32 864 32
WIRE 960 32 960 -48
WIRE 960 32 896 32
WIRE 1024 32 1024 -160
WIRE 96 48 96 -96
WIRE 464 48 464 -16
WIRE 752 48 752 32
WIRE 400 80 400 -16
WIRE 400 80 368 80
WIRE 528 80 528 48
WIRE 608 80 608 -160
WIRE 608 80 528 80
WIRE 528 128 528 80
WIRE 608 128 608 80
WIRE 752 128 752 112
WIRE 896 128 896 32
WIRE 400 192 400 80
WIRE 464 192 464 128
WIRE 752 208 752 192
WIRE 96 256 96 128
WIRE 464 256 464 192
WIRE 464 256 96 256
WIRE 608 304 608 192
WIRE 752 304 752 272
WIRE 752 304 608 304
WIRE 896 304 896 192
WIRE 896 304 752 304
WIRE 1024 304 1024 112
WIRE 1024 304 896 304
WIRE 608 336 608 304
WIRE 688 592 608 592
WIRE 832 592 768 592
WIRE 1024 592 832 592
WIRE 1040 592 1024 592
WIRE 464 656 96 656
WIRE 832 688 832 592
WIRE 464 736 464 656
WIRE 1024 784 1024 592
WIRE 96 800 96 656
WIRE 464 800 464 736
WIRE 400 832 400 736
WIRE 400 832 368 832
WIRE 528 832 528 800
WIRE 608 832 608 592
WIRE 608 832 528 832
WIRE 528 880 528 832
WIRE 608 880 608 832
WIRE 400 944 400 832
WIRE 464 944 464 880
WIRE 96 1008 96 880
WIRE 464 1008 464 944
WIRE 464 1008 96 1008
WIRE 608 1040 608 944
WIRE 832 1040 832 752
WIRE 832 1040 608 1040
WIRE 1024 1040 1024 864
WIRE 1024 1040 832 1040
WIRE 608 1088 608 1040
FLAG 368 80 0
FLAG 608 336 0
FLAG 1040 -160 HTPos
FLAG 368 832 0
FLAG 608 1088 0
FLAG 1040 592 HTNeg
SYMBOL voltage 96 32 R0
WINDOW 123 0 0 Left 2
WINDOW 39 24 124 Left 2
SYMATTR SpiceLine Rser=28
SYMATTR InstName V1
SYMATTR Value SINE(0 297 50 0 0 0 3000)
SYMBOL diode 400 0 R270
WINDOW 0 32 32 VTop 2
WINDOW 3 0 32 VBottom 2
SYMATTR InstName D1
SYMBOL diode 464 64 R270
WINDOW 0 32 32 VTop 2
WINDOW 3 0 32 VBottom 2
SYMATTR InstName D2
SYMBOL diode 464 144 R270
WINDOW 0 32 32 VTop 2
WINDOW 3 0 32 VBottom 2
SYMATTR InstName D3
SYMBOL diode 400 208 R270
WINDOW 0 32 32 VTop 2
WINDOW 3 0 32 VBottom 2
SYMATTR InstName D4
SYMBOL cap 624 128 M0
SYMATTR InstName C1
SYMATTR Value 470µ
SYMATTR SpiceLine V=380 Rser=1
SYMBOL res 736 -112 R0
SYMATTR InstName R1
SYMATTR Value 10k
SYMBOL zener 768 192 R180
WINDOW 0 24 64 Left 2
WINDOW 3 24 0 Left 2
SYMATTR InstName D6
SYMATTR Value 1N5378B
SYMATTR Description Diode
SYMATTR Type diode
SYMBOL zener 768 112 R180
WINDOW 0 24 64 Left 2
WINDOW 3 24 0 Left 2
SYMATTR InstName D5
SYMATTR Value 1N5378B
SYMATTR Description Diode
SYMATTR Type diode
SYMBOL zener 768 272 R180
WINDOW 0 24 64 Left 2
WINDOW 3 24 0 Left 2
SYMATTR InstName D7
SYMATTR Value 1N5369B
SYMATTR Description Diode
SYMATTR Type diode
SYMBOL res 880 16 R90
WINDOW 0 0 56 VBottom 2
WINDOW 3 32 56 VTop 2
SYMATTR InstName R2
SYMATTR Value 470k
SYMBOL cap 880 128 R0
SYMATTR InstName C2
SYMATTR Value 15µ
SYMATTR SpiceLine V=350 Rser=2
SYMBOL res 880 -96 R0
SYMATTR InstName R3
SYMATTR Value 1k
SYMBOL Misc\\IRF820 816 -112 R270
SYMATTR InstName U1
SYMBOL res 1008 16 R0
SYMATTR InstName R4
SYMATTR Value 1k
SYMBOL zener 944 -112 R0
SYMATTR InstName D8
SYMATTR Value BZX84C10L
SYMATTR Description Diode
SYMATTR Type diode
SYMBOL voltage 96 784 R0
WINDOW 123 0 0 Left 2
WINDOW 39 24 124 Left 2
SYMATTR SpiceLine Rser=48
SYMATTR InstName V2
SYMATTR Value SINE(0 127 50 0 0 0 3000)
SYMBOL diode 464 720 R90
WINDOW 0 0 32 VBottom 2
WINDOW 3 32 32 VTop 2
SYMATTR InstName D9
SYMBOL diode 528 784 R90
WINDOW 0 0 32 VBottom 2
WINDOW 3 32 32 VTop 2
SYMATTR InstName D10
SYMBOL diode 528 864 R90
WINDOW 0 0 32 VBottom 2
WINDOW 3 32 32 VTop 2
SYMATTR InstName D11
SYMBOL diode 464 928 R90
WINDOW 0 0 32 VBottom 2
WINDOW 3 32 32 VTop 2
SYMATTR InstName D12
SYMBOL cap 624 880 M0
SYMATTR InstName C3
SYMATTR Value 220µ
SYMATTR SpiceLine V=250 Rser=1
SYMBOL res 672 608 R270
WINDOW 0 32 56 VTop 2
WINDOW 3 0 56 VBottom 2
SYMATTR InstName R5
SYMATTR Value 470
SYMBOL res 1008 768 R0
SYMATTR InstName R6
SYMATTR Value 3300
SYMBOL zener 848 688 M0
SYMATTR InstName D13
SYMATTR Value 1N5378B
SYMATTR Description Diode
SYMATTR Type diode
TEXT 1080 80 Left 2 ;load
TEXT 64 360 Left 2 !.tran 80
TEXT 1088 808 Left 2 ;load
