Version 4
SHEET 1 2092 1108
WIRE 672 -272 608 -272
WIRE 800 -272 752 -272
WIRE 944 -272 800 -272
WIRE 1136 -272 1008 -272
WIRE 800 -224 800 -272
WIRE 608 -160 608 -272
WIRE 752 -160 608 -160
WIRE 912 -160 848 -160
WIRE 1136 -160 1136 -272
WIRE 1136 -160 1040 -160
WIRE 1280 -160 1136 -160
WIRE 1488 -160 1280 -160
WIRE 1600 -160 1488 -160
WIRE 1728 -160 1600 -160
WIRE 1280 -128 1280 -160
WIRE 1136 -112 1136 -160
WIRE 464 -96 96 -96
WIRE 464 -16 464 -96
WIRE 976 16 976 -112
WIRE 1136 16 1136 -48
WIRE 1136 16 976 16
WIRE 1280 16 1280 -48
WIRE 1280 16 1136 16
WIRE 1488 32 1488 -160
WIRE 1600 32 1600 -160
WIRE 96 48 96 -96
WIRE 464 48 464 -16
WIRE 1136 48 1136 16
WIRE 400 80 400 -16
WIRE 400 80 368 80
WIRE 528 80 528 48
WIRE 608 80 608 -160
WIRE 608 80 528 80
WIRE 1280 112 1280 16
WIRE 528 128 528 80
WIRE 608 128 608 80
WIRE 1136 176 1136 128
WIRE 400 192 400 80
WIRE 464 192 464 128
WIRE 96 256 96 128
WIRE 464 256 464 192
WIRE 464 256 96 256
WIRE 608 304 608 192
WIRE 1136 304 1136 240
WIRE 1136 304 608 304
WIRE 1280 304 1280 192
WIRE 1280 304 1136 304
WIRE 1488 304 1488 112
WIRE 1488 304 1280 304
WIRE 1600 304 1600 112
WIRE 1600 304 1488 304
WIRE 608 336 608 304
WIRE 688 592 608 592
WIRE 880 592 768 592
WIRE 1312 592 880 592
WIRE 1328 592 1312 592
WIRE 464 656 96 656
WIRE 464 736 464 656
WIRE 1312 784 1312 592
WIRE 96 800 96 656
WIRE 464 800 464 736
WIRE 880 800 880 592
WIRE 400 832 400 736
WIRE 400 832 368 832
WIRE 528 832 528 800
WIRE 608 832 608 592
WIRE 608 832 528 832
WIRE 528 880 528 832
WIRE 608 880 608 832
WIRE 400 944 400 832
WIRE 464 944 464 880
WIRE 96 1008 96 880
WIRE 464 1008 464 944
WIRE 464 1008 96 1008
WIRE 608 1040 608 944
WIRE 880 1040 880 864
WIRE 880 1040 608 1040
WIRE 1312 1040 1312 864
WIRE 1312 1040 880 1040
WIRE 608 1088 608 1040
FLAG 368 80 0
FLAG 608 336 0
FLAG 368 832 0
FLAG 608 1088 0
FLAG 1328 592 HTNeg
FLAG 1728 -160 output
SYMBOL voltage 96 32 R0
WINDOW 123 0 0 Left 2
WINDOW 39 24 124 Left 2
SYMATTR SpiceLine Rser=28
SYMATTR InstName V1
SYMATTR Value SINE(0 297 50 0 0 0 3000)
SYMBOL diode 400 0 R270
WINDOW 0 32 32 VTop 2
WINDOW 3 0 32 VBottom 2
SYMATTR InstName D1
SYMBOL diode 464 64 R270
WINDOW 0 32 32 VTop 2
WINDOW 3 0 32 VBottom 2
SYMATTR InstName D2
SYMBOL diode 464 144 R270
WINDOW 0 32 32 VTop 2
WINDOW 3 0 32 VBottom 2
SYMATTR InstName D3
SYMBOL diode 400 208 R270
WINDOW 0 32 32 VTop 2
WINDOW 3 0 32 VBottom 2
SYMATTR InstName D4
SYMBOL cap 624 128 M0
SYMATTR InstName C1
SYMATTR Value 470µ
SYMATTR SpiceLine V=380 Rser=1
SYMBOL voltage 96 784 R0
WINDOW 123 0 0 Left 2
WINDOW 39 24 124 Left 2
SYMATTR SpiceLine Rser=48
SYMATTR InstName V2
SYMATTR Value SINE(0 127 50 0 0 0 3000)
SYMBOL diode 464 720 R90
WINDOW 0 0 32 VBottom 2
WINDOW 3 32 32 VTop 2
SYMATTR InstName D9
SYMBOL diode 528 784 R90
WINDOW 0 0 32 VBottom 2
WINDOW 3 32 32 VTop 2
SYMATTR InstName D10
SYMBOL diode 528 864 R90
WINDOW 0 0 32 VBottom 2
WINDOW 3 32 32 VTop 2
SYMATTR InstName D11
SYMBOL diode 464 928 R90
WINDOW 0 0 32 VBottom 2
WINDOW 3 32 32 VTop 2
SYMATTR InstName D12
SYMBOL cap 624 880 M0
SYMATTR InstName C3
SYMATTR Value 100µ
SYMATTR SpiceLine V=250 Rser=1
SYMBOL res 784 576 R90
WINDOW 0 0 56 VBottom 2
WINDOW 3 32 56 VTop 2
SYMATTR InstName R5
SYMATTR Value 470
SYMBOL cap 864 800 R0
SYMATTR InstName C2
SYMATTR Value 100µF
SYMBOL res 1296 768 R0
SYMATTR InstName R2
SYMATTR Value 4k
SYMBOL npn2 752 -224 M90
SYMATTR InstName Q1
SYMATTR Value MJE340
SYMBOL res 1264 -144 R0
SYMATTR InstName R1
SYMATTR Value 2k
SYMBOL res 1264 96 R0
SYMATTR InstName R3
SYMATTR Value 350k
SYMBOL zener 1008 -288 R90
WINDOW 0 0 32 VBottom 2
WINDOW 3 32 32 VTop 2
SYMATTR InstName D6
SYMATTR Value BZX84C8V2L
SYMATTR Description Diode
SYMATTR Type diode
SYMBOL res 656 -256 R270
WINDOW 0 32 56 VTop 2
WINDOW 3 0 56 VBottom 2
SYMATTR InstName R7
SYMATTR Value 2k
SYMBOL diode 1152 -48 R180
WINDOW 0 24 64 Left 2
WINDOW 3 24 0 Left 2
SYMATTR InstName D5
SYMATTR Value 1N4148
SYMBOL cap 1120 176 R0
SYMATTR InstName C4
SYMATTR Value 15µF
SYMATTR SpiceLine Rser=1
SYMBOL Misc\\lm317 976 -160 R0
WINDOW 3 0 0 Left 2
SYMATTR Value LM317TI
SYMATTR InstName U1
SYMATTR Value2 LM317TI
SYMBOL res 1120 32 R0
SYMATTR InstName R6
SYMATTR Value 6
SYMBOL current 1488 32 R0
WINDOW 123 0 0 Left 2
WINDOW 39 0 0 Left 2
SYMATTR InstName I1
SYMATTR Value SINE(0 20m 1k 30 0 0 30k)
SYMBOL current 1600 32 R0
WINDOW 123 0 0 Left 2
WINDOW 39 0 0 Left 2
SYMATTR InstName I2
SYMATTR Value PWL(0 0m 15 50m 25 200m 35 220m)
TEXT 64 360 Left 2 !.tran 80
TEXT 1376 808 Left 2 ;load
