Version 4
SHEET 1 2848 1268
WIRE 608 624 608 576
WIRE 784 624 608 624
WIRE 880 624 784 624
WIRE 1184 624 880 624
WIRE 1312 624 1184 624
WIRE 464 656 96 656
WIRE 880 672 880 624
WIRE 1184 704 1184 624
WIRE 608 720 608 624
WIRE 464 736 464 656
WIRE 96 800 96 656
WIRE 464 800 464 736
WIRE 1312 800 1312 624
WIRE 400 832 400 736
WIRE 400 832 368 832
WIRE 528 832 528 800
WIRE 608 832 608 784
WIRE 608 832 528 832
WIRE 784 832 784 624
WIRE 880 864 880 752
WIRE 992 864 880 864
WIRE 1184 864 1184 768
WIRE 1184 864 1072 864
WIRE 528 880 528 832
WIRE 880 880 880 864
WIRE 880 896 880 880
WIRE 400 944 400 832
WIRE 464 944 464 880
WIRE 960 960 928 960
WIRE 96 1008 96 880
WIRE 464 1008 464 944
WIRE 464 1008 96 1008
WIRE 1184 1024 1184 864
WIRE 608 1072 608 832
WIRE 656 1072 608 1072
WIRE 784 1072 784 896
WIRE 784 1072 736 1072
WIRE 880 1072 880 1056
WIRE 880 1072 784 1072
WIRE 960 1072 960 960
WIRE 960 1072 880 1072
WIRE 1104 1072 960 1072
WIRE 1200 1072 1184 1072
WIRE 1312 1072 1312 880
WIRE 1312 1072 1200 1072
WIRE 1312 1136 1312 1072
FLAG 368 832 0
FLAG 608 576 0
FLAG 1312 1136 HTNeg
SYMBOL voltage 96 784 R0
WINDOW 123 0 0 Left 2
WINDOW 39 24 124 Left 2
SYMATTR SpiceLine Rser=48
SYMATTR InstName V2
SYMATTR Value SINE(0 127 50 0 0 0 3000)
SYMBOL diode 464 720 R90
WINDOW 0 0 32 VBottom 2
WINDOW 3 32 32 VTop 2
SYMATTR InstName D9
SYMBOL diode 528 784 R90
WINDOW 0 0 32 VBottom 2
WINDOW 3 32 32 VTop 2
SYMATTR InstName D10
SYMBOL diode 528 864 R90
WINDOW 0 0 32 VBottom 2
WINDOW 3 32 32 VTop 2
SYMATTR InstName D11
SYMBOL diode 464 928 R90
WINDOW 0 0 32 VBottom 2
WINDOW 3 32 32 VTop 2
SYMATTR InstName D12
SYMBOL cap 624 784 R180
WINDOW 0 24 56 Left 2
WINDOW 3 24 8 Left 2
SYMATTR InstName C3
SYMATTR Value 100µ
SYMATTR SpiceLine V=250 Rser=1
SYMBOL res 896 768 R180
WINDOW 0 36 76 Left 2
WINDOW 3 36 40 Left 2
SYMATTR InstName R4
SYMATTR Value 120k
SYMBOL res 1296 896 M180
WINDOW 0 36 76 Left 2
WINDOW 3 36 40 Left 2
SYMATTR InstName R2
SYMATTR Value 3143
SYMBOL Misc\\IRF9610 1104 1024 M90
SYMATTR InstName U2
SYMBOL cap 1168 768 M180
WINDOW 0 24 56 Left 2
WINDOW 3 24 8 Left 2
SYMATTR InstName C1
SYMATTR Value 16µ
SYMBOL res 1088 880 M270
WINDOW 0 32 56 VTop 2
WINDOW 3 0 56 VBottom 2
SYMATTR InstName R1
SYMATTR Value 100k
SYMBOL res 640 1056 M90
WINDOW 0 0 56 VBottom 2
WINDOW 3 32 56 VTop 2
SYMATTR InstName R3
SYMATTR Value 220
SYMBOL cap 800 896 R180
WINDOW 0 24 56 Left 2
WINDOW 3 24 8 Left 2
SYMATTR InstName C2
SYMATTR Value 220µ
SYMATTR SpiceLine V=250 Rser=1
SYMBOL res 864 1072 M180
WINDOW 0 36 76 Left 2
WINDOW 3 36 40 Left 2
SYMATTR InstName R5
SYMATTR Value 2.2k
SYMBOL Misc\\DN3545 928 880 M0
SYMATTR InstName U1
TEXT 64 360 Left 2 !.tran 40
TEXT 1328 888 Left 2 ;load
